Title: MolmoAct2: Action Reasoning Models for Real-world Deployment

URL Source: https://arxiv.org/pdf/2605.02881v1

Published Time: Tue, 05 May 2026 02:28:28 GMT

Number of Pages: 32

Markdown Content:
# MolmoAct2 

# Action Reasoning Models for Real-World Deployment 

Haoquan Fang ♥1,2∗ Jiafei Duan ♥1,2,3∗

Donovan Clay ♥1,2 Sam Wang ♥1,4 Shuo Liu ♥2 Weikai Huang ♥1,2 Xiang Fan ♥1,2 Wei-Chuan Tsai ♥2

Shirui Chen ♥1,2 Yi Ru Wang ♥1,2 Shanli Xing ♥2

Jaemin Cho 1,2,5 Jae Sung Park 1 AinazEftekhar 1,2 PeterSushko 1 KarenFarley 1 AngadWadhwa 2

Cole Harrison 6 Winson Han 1 Ying-Chun Lee 2 Eli VanderBilt 1 Rose Hendrix 1 Suveen Ellawela 7

Lucas Ngoo 7

Joyce Chai 8 Zhongzheng Ren ♥1,2,9 Ali Farhadi ♥1,2 Dieter Fox ♥1,2 Ranjay Krishna ♥1,21Allen Institute for AI, 2University of Washington, 3National University of Singapore, 4University of Penn-sylvania, 5Johns Hopkins University, 6Amazon, 7Cortex AI, 8University of Michigan, 9University of North Carolina at Chapel Hill 

* denotes equal contribution in no particular order. ♥ marks core contributors. See full author contributions here. 

MolmoAct2: MolmoAct2-Finetune MolmoAct2 MolmoAct2-Think MolmoAct2-Pretrain Molmo2-ER 

MolmoAct2 Data: MolmoAct2-BimanualYAM MolmoAct2-SO100/101 MolmoAct2-DROID Molmo2-ER 

Code: allenai/molmoact2 

Blog: allenai.org/blog/molmoact2 

# Abstract 

Vision-Language-Action (VLA) models aim to provide a single generalist controller for robots, but today’s systems fall short on the criteria that matter for real-world deployment. Frontier models are closed, open-weight alternatives are tied to expensive hardware, reasoning-augmented policies pay prohibitive latency for their grounding, and fine-tuned success rates remain below the threshold for dependable use. We present MolmoAct2 , a fully open action reasoning model built for practical deployment, advancing its predecessor, MolmoAct along five axes. We introduce Molmo2-ER ,a VLM backbone specialized for spatial and embodied reasoning, trained on a 3.3M-sample corpus with a specialize-then-rehearse recipe. We release three new datasets spanning low-to-medium cost platforms: MolmoAct2-BimanualYAM Dataset , 720 hours of teleoperated bimanual trajectories that constitute the largest open bimanual dataset to date; MolmoAct2-DROID Dataset , a quality-filtered Franka subset of DROID; and MolmoAct2-SO100/101 Dataset , a quality-filtered SO-100/101 subset. We provide OpenFAST Tokenizer , an open-weight, open-data action tokenizer trained on millions of trajectories across five embodiments. We redesign the architecture to graft a flow-matching continuous-action expert onto a discrete-token VLM via per-layer KV-cache conditioning. Finally, we propose MolmoAct2-Think , an adaptive-depth reasoning variant that re-predicts depth tokens only for scene regions that change between timesteps, retaining geometric grounding at a fraction of prior latency. In the most extensive empirical study of any open VLA to date, spanning 7 simulation and real-world benchmarks, MolmoAct2 outperforms strong baselines including π0.5,while Molmo2-ER surpasses GPT-5 and Gemini Robotics ER-1.5 across 13 embodied-reasoning benchmarks. We release model weights, training code, and complete training data. 

1

> arXiv:2605.02881v1 [cs.RO] 4 May 2026

# -Think 

# Open-Source Robot Data 

## MolmoAct2-BimanualYAM 

## MolmoAct2-DROID 

## MolmoAct2-SO100/101 

Adapted for 

In-The-Wild Deployment  

> Language Noise
> Action
> Observations

Out-Of-The-Box 

Deployments 

> KV Connection
> KV Connection
> Action
> Expert

Pre-Trained 

Pre-Trained     

> Household
> clean up wash dishes pour tea
> Wetlab Cafe
> Adaptive Depth Perception Tokens
> Action Action
> Expert
> Bimanual YAM DROID FRANKA SO-100/101

Figure 1 Overview of MolmoAct2. MolmoAct2 is a fully open action reasoning model for real-world deployment. From a suite of high-quality robot datasets that we collect, filter, and curate at scale across three platforms spanning the low-to-medium cost range (left), we train MolmoAct2 and its adaptive-depth reasoning variant MolmoAct2-Think ,coupled to the VLM backbone through a novel action expert connection (center). The resulting models deploy out-of-the-box on bimanual YAM, SO-100/101, and DROID Franka, and adapt to in-the-wild tasks such as cleaning up, washing dishes, wetlab automation, and pouring tea (right). 

# 1 Introduction 

Large language models have moved beyond academic benchmarks into systems that touch nearly every aspect of daily life except the physical world: not text on a screen but actions in a kitchen, a warehouse, or a hospital. Robots deployed in these settings face a long list of tasks that no fixed skill library can anticipate—folding laundry one moment, assembling parts the next, picking up after a child the moment after that. Kitchens, offices, labs, and factories each impose their own objects, layouts, and tolerances, and the policies that operate in them must generalize accordingly. The long-standing aspiration is therefore a single generalist controller—one model that transfers across tasks, scenes, and embodiments—rather than a fleet of task-specific policies hand-engineered one at a time. This aspiration has driven the field toward vision–language–action (VLA) models, which build on vi-sion–language model (VLM) backbones pre-trained on web-scale image–text data and are then trained on diverse robot trajectories to map pixels and language directly to actions. Progress over the past two years has been rapid, with successive generations of VLAs posting increasingly impressive task-success numbers on standardized benchmarks. Yet despite this progress, current most VLAs fall short of this vision along several axes making them unfavorable for real-world deployments. (i) Frontier VLAs (Team et al., 2024, 2025b; Team, 2026b,a) are effectively closed systems: their training data, recipes, and model weights are proprietary. The few exceptions release weights alone, withholding the data and training procedures needed to reproduce or extend them. This opacity both impedes scientific progress and prevents practitioners from adapting these models to their own robots or fine-tuning on in-house demonstrations. (ii) Recent systems (Zhao et al., 2025; Sun et al., 2024; Lee et al., 2025; Zheng et al., 2024) have shown that explicit reasoning—chain-of-thought traces, predicted goal images, point trajectories, or full world-model rollouts—improves both action quality and the diagnosability of failures. In current implementations, however, this reasoning dominates inference latency: hundreds of tokens or entire predicted frames must be generated before a single action is emitted, and emerging world-model action models (Kim et al., 2026a; Zhu et al., 2025) compound the problem with heavyweight per-step rollouts. The very mechanism intended to make policies more reliable thus renders them too slow for closed-loop control. (iii) The few open-weights VLAs (Black et al.; Intelligence et al., 2025) that can be run out-of-the-box are tied to expensive or specialized robot platforms beyond the reach of most academic labs and independent researchers. This constrains not only who can use these models, but also the diversity of settings in which they can be evaluated and improved. (iv) Zero-shot performance remains brittle, and even after task-specific fine-tuning, success rates on realistic tasks fall well below the threshold required for dependable deployment. 2In this paper, we present MolmoAct2 , an action reasoning model built for real-world deployment: fully open, deployable out-of-the-box on accessible embodiments, performant, and capable of fast, interpretable reasoning (Figure 1). MolmoAct2 improves over its predecessor MolmoAct (Lee et al., 2025) along five axes: a stronger embodied-reasoning VLM backbone, new training datasets, an open-source FAST action tokenizer, a redesigned VLA architecture, and a new reasoning paradigm. General-purpose VLMs underspecify the embodied skills a policy needs—metric distances, free space, cross-view object tracking, and scene geometry. We address this with Molmo2-ER (Sec. 2), a VLM specialized for spatial and embodied reasoning, initialized from Molmo2 and trained on a 3.3M-sample spatial–embodied corpus using a specialize-then-rehearse recipe. To support both pre-training and post-training of action models on top of this backbone, we release three datasets in Sec. 3 targeting three platforms across the low-to-medium cost range: (i) MolmoAct2-BimanualYAM Dataset ,720 hours of teleoperated YAM trajectories spanning tabletop and household tasks—the largest open bimanual dataset to date; (ii) MolmoAct2-SO100/101 Dataset , a filtered subset of internet SO-100/101 data with mislabeled and low-quality trajectories removed; and (iii) MolmoAct2-DROID Dataset , a quality-filtered Franka subset of DROID. To make these trajectories usable under a discrete autoregressive objective, we introduce an open re-implementation of the FAST tokenizer (Pertsch et al., 2025), releasing both the weights and the millions of trajectories across five embodiments used to train it; the tokenizer compresses one second of 32-D continuous actions into a compact discrete sequence. From the MolmoAct2-Pretrain checkpoint, we then attach an action expert that generates continuous trajectories via flow matching conditioned on the VLM’s per-layer KV cache—a novel mechanism for grafting a continuous-control head onto a discrete-token VLM. Finally, we introduce MolmoAct2-Think , the reasoning variant of MolmoAct2 , which performs adaptive depth reasoning by autoregressively predicting only the depth tokens for scene regions that change between timesteps. This exploits trajectory-level temporal redundancy to reduce latency proportional to the static scene fraction while retaining the geometric grounding that significantly improves model performance. To understand the capabilities of MolmoAct2 and assess its readiness for real-world deployment, we conduct the most extensive empirical study of any open VLA to date, spanning 7 environment benchmarks across both simulation and the real world. Across all of them, MolmoAct2 and MolmoAct2-Think 

outperform every strong baseline. We show that MolmoAct2 ’s fine-tuned checkpoints, MolmoAct2-DROID and MolmoAct2-SO100/101 , can be deployed out of the box on their respective embodiments without any additional fine-tuning, significantly surpassing π0.5 (Intelligence et al., 2025) (Sec.6.2). We further demonstrate that MolmoAct2 is built on one of the strongest embodied-reasoning VLM backbones available: 

Molmo2-ER surpasses models such as GPT-5 (Singh et al., 2025) and Gemini Robotics Embodied Reasoning (ER)-1.5 (Team et al., 2025a) on 13 standard embodied-reasoning benchmarks (Sec.6.1). For rapid real-world deployment via efficient fine-tuning to new embodiments, MolmoAct2 opens large performance gaps over strong general-purpose VLAs such as π0.5 (Intelligence et al., 2025) not only on the two mainstream simulation benchmarks LIBERO (Liu et al., 2023) and RoboEval (Wang et al., 2025b), but also on a comprehensive evaluation suite of 8 real-world tasks on the bimanual YAM setup (Sec.6.3). Finally, our MolmoAct2-Think 

models yield further gains over MolmoAct2 while providing additional interpretability that aids both diagnosis and performance (Sec.6.4). 

MolmoAct2 is fully open in every respect, and beyond that, is capable of supporting real-world deployment for practical tasks: we release the model weights, training code, and the complete training dataset. We aim for MolmoAct2 to be more than an academic robotics foundation model; we want it to be a model that can be deployed in real-world workflows and deliver meaningful social impact. 

# 2 Molmo2-ER 

Molmo2-ER is the vision-language backbone underlying MolmoAct2 . Built on top of Molmo2 (Clark et al., 2026) and specialized for the embodied perception skills that downstream action reasoning depends on—scene understanding, pixel-accurate pointing, multi-image and egocentric–exocentric correspondence, and video temporal reasoning— Molmo2-ER outperforms every open-weight baseline as well as the strongest closed-source models, including Gemini Robot-ER 1.5 Thinking and GPT-5, on 9 of 13 established embodied reasoning benchmarks (Table 3), reaching an overall average of 63 .8% and improving over its Molmo2 

starting point by 17 points. The remainder of this section describes the new training data we introduce for 

Molmo2-ER (Sec. 2.1, summarized in Table 1) and the two-stage training recipe used to inject these skills 3Table 1 MolmoAct2 multimodal web data training corpus (combining data from Molmo2 and Molmo2-ER). Sizes denote the number of samples used in our mixture (we subsample several datasets to balance the mixture). Sampling weights are the marginal proportion of each group within the non-robotics portion of the pretraining mixture.                                             

> Molmo2 Dataset Mixture Molmo2-ER Dataset Mixture Pillar #Samples Weight Pillar #Samples Weight
> Image QA 2.4 M 0.115 Image Embodied QA 1.33 M 0.11 Video QA 2.4 M 0.092 Image Pointing 780K 0.11 Image Pointing 1.1 M 0.046 Image Detection 100K 0.01 Video Pointing 370K 0.069 Video Embodied QA 703k 0.1 Video Tracking 800K 0.069 Multi-image/ Ego-Exo 700K 0.09 Captions/Long QA 1.2M 0.069 Abstract Reasoning 150K 0.04
> Molmo2 Subtotal 8.25M 0.46 Molmo2-ER Subtotal 3.26M 0.46 NLP 980k 0.08 Total ≈12.51M

(Sec. 2.2). 

# 2.1 Training data 

On top of Molmo2 ’s original multimodal pre- and mid-training data (Clark et al., 2026), we curate a new embodied reasoning corpus of approximately 3.3M samples spanning six complementary capability pillars: single-image embodied QA, image pointing, image detection, video embodied QA, multi-image and ego–exo reasoning, and abstract embodied reasoning. Each pillar is covered by two or three datasets with diverse supervision sources (simulator ground truth, 3D-annotated real scans, template-generated QA, and a small amount of LLM-generated chain-of-thought), so that the model is exposed to a wide distribution of spatial reasoning phenomena rather than over-fitting to a single template style. The composition of this corpus is summarized in Table 1; we briefly describe each constituent below.  

> Image embodied QA.

We assemble a mixture of image QA sources chosen to cover complementary axes of spatial competence rather than to maximize any single one. SAT (Ray et al., 2025) supplies simulator-grounded supervision for dynamic reasoning (egocentric motion, perspective taking, action consequences) that is hard to harvest from static web data. RoboPoint-QA (Yuan et al., 2024) contributes general VQA breadth to guard against forgetting base perception during spatial fine-tuning. RefSpatial (Zhou et al., 2026) bridges web images, real indoor scans, and procedural simulation, and is our main source of chain-of-thought referring —the bridge from spatial language to the pointing actions used downstream; we draw 250K MCQ, 250K CoT, and 80K pointing examples. VST-P (Yang et al., 2025c) normalizes inputs onto a uniform virtual camera, giving metric-consistent depth, distance, direction, and size supervision (200K single-image + 200K cross-view). VSI-590K (Yang et al., 2025d) extends coverage to in-the-wild robotics and tour footage via 3D-grounded label propagation (200K image + 300K video). Together these span static/dynamic, synthetic/real, and single-/multi-view regimes.  

> Video embodied QA.

To extend reasoning across time we pair two complementary sources. SIMS-VSI (Brown et al., 2025) gives clean simulator labels for distance, direction, count, and temporal-order questions over agent trajectories (203K). RoboVQA (Sermanet et al., 2023) covers the other end of the distribution: human-annotated long-horizon embodied video targeting planning, affordance, and future prediction—i.e. the question types that map most directly onto policy behavior; we use a 200K subset.  

> Pointing and object detection.

Pointing is our primary action interface, so we deliberately oversample pixel-accurate localization. Beyond RefSpatial’s pointing split, we use the full RoboPoint procedural pointing corpus (700K normalized (x, y ) targets for object reference and free-space selection) together with its 100K 4LVIS-sourced detection split (Yuan et al., 2024), which ground spatial language directly in the coordinate format the policy consumes.  

> Multi-image and ego--exo correspondence.

Embodied policies routinely reconcile multiple camera views and switch between first- and third-person frames, an ability under-served by single-image corpora. We therefore include SenseNova-SI (Cai et al., 2026) (500K subset), whose distinguishing emphasis is multi-image and egocentric–exocentric correspondence (Grauman et al., 2024), together with the 200K cross-view split of VST-P.  

> Abstract embodied reasoning.

Finally, we add two synthetic diagnostics to harden compositional reasoning in a low-bias setting. CLEVR (Johnson et al., 2016) (50K) targets compositional attribute–relation reasoning. GRiD-3D (Lee et al., 2022) (100K) specifically isolates object-intrinsic relative direction (front/left of a referent’s own frame, not the camera’s)—a frame-of-reference distinction that matters for instruction following but is rarely labeled in natural data. 

# 2.2 Specialize-then-rehearse training recipe 

To avoid the redundant compute of re-running Molmo2 ’s full multimodal training with our new corpus integrated, we build on the released Molmo2 checkpoint with a two-stage specialize-then-rehearse recipe.  

> Stage 1: Embodied specialization.

Starting from the Molmo2 (Qwen3–4B) mid-training checkpoint (Deitke et al., 2024; Yang et al., 2025a), we fine-tune for 20 K steps on the Molmo2-ER corpus augmented with 

8% Tulu-3 (Lambert et al., 2025) text-only data to preserve language competence, using sequence length 

4,200 and a global batch size of 64 (device batch size 4 across 2 nodes × 8 H100 GPUs). This stage rapidly moves the model onto the embodied data manifold: pointing accuracy, video embodied QA, and multi-image reasoning all improve sharply.  

> Stage 2: Joint refinement.

We continue training the Stage 1 checkpoint for 1.5K additional steps on a mixture that interleaves our embodied corpus with Molmo2 ’s original multimodal mid-training data (general VQA, captioning, academic benchmarks, tracking, and Molmo2 pointing). Holding the NLP rate at 8% , the remaining 92% budget is split as p⋅0.92 embodied and (1−p)⋅0.92 general, with each side’s internal proportions preserved. Sweeping p ∈ {0.30 , 0.50 , 0.70 , 0.90 }, we find p = 0.5 yields the best Pareto trade-off between the embodied-reasoning benchmarks in Table 3 and Molmo2 ’s general benchmarks. To accommodate the long multi-image and long-video examples in the general mixture, Stage 2 uses a longer sequence length ( 16 ,384 

vs. 4,200 in Stage 1) with per-device batch size reduced to 1; all other hyperparameters follow Molmo2 .

# 3 Data 

MolmoAct2 is trained on a diverse set of datasets spanning robot data, multimodal reasoning, and embodied reasoning, summarized in Fig. 2. Additionally, we collected MolmoAct2-BimanualYAM Dataset , curated 

MolmoAct2-SO100/101 Dataset , and filtered MolmoAct2-DROID Dataset for use in pre-training and post-training. Below, we describe each dataset and detail its respective collection, curation, or filtering process. 

# 3.1 MolmoAct2-BimanualYAM Dataset 

To support real-world deployment, we introduce MolmoAct2-BimanualYAM Dataset , an open-source robot manipulation dataset that emphasizes task repeatability, task diversity, and object diversity across a broad range of useful behaviors spanning household, factory, and coffee-shop settings. All data is collected on our custom bimanual YAM (Yet Another Manipulator) setup, shown in Figure 3. MolmoAct2-BimanualYAM Dataset is designed to deliver both scale and quality. It contains over 28 unique real-world tasks from folding clothes and untangling cables to bussing tables, scanning groceries, and packing medication, each captured with substantial variation in scene configuration, object instances, and object placement. In total, the dataset comprises 34.5k robot demonstrations totaling over 720 hours of robot data, collected over a two-month period. 5What action is occuring? 

A: Wiping sink 

Why is the kayak shaking? 

A: The waves in the water 

Video pointing Spatial pointing 

Multi-view 

spatial reasoning 

If someone at "X" 

turned left 90 

degrees, will the 

sofa (4)be to 

their left or right? 

A: right 

sort cubes 

keep items play game untie rope 

pick up block build Lego 

"pack container" "clean plate" 

"scan groceries" "store clothes" 

FRACTAL 

DRIOD 

Bridge-V2 

MolmoAct 

# Academic 

# datasets MolmoAct2-BimanualYAM 

# dataset 

# MolmoAct2-SO100/101 dataset 

# Multi-modal web data 

# Embodiment Reasoning data Figure 2 Overview of the MolmoAct2 training data. Our data mixture combines public academic robot datasets,   

> MolmoAct2-BimanualYAM Dataset ,MolmoAct2-DROID Dataset ,MolmoAct2-SO100/101 Dataset ,multimodal web data, and embodied-reasoning data.

Data collection was supported by Cortex AI, with strict protocols governing the number of permitted failure retries and the maximum duration of no-op segments to ensure consistently high data quality. Further details on MolmoAct2-BimanualYAM Dataset are provided in the appendix. 

# 3.2 MolmoAct2-SO100/101 Dataset 

SO-100/101 is a low-cost robotic platform from Hugging Face that is accessible to a broad community of users. As a result, we utilize the diverse open-source SO-10x data collected by the community to improve our model’s capability for deployment in the wild. Specifically, we curate MolmoAct2-SO100/101 Dataset from 1,222 public LeRobot datasets contributed by 377 users. This corpus contains 38,059 robot demonstration episodes, 19.8M frames, and approximately 184 hours of interaction data. To prioritize quality while preserving diversity, we apply a four-stage filtering pipeline: (i) structural validity checks (required schema fields, valid action/state tensors, no NaN/corrupt samples), (ii) removal of eval-style datasets, (iii) license/codebase eligibility checks, and (iv) a final TOPReward quality gate (Chen et al., 2026). In stage (iv), we keep datasets whose mean TOPReward over the last 3 sampled episodes is above a threshold obtained by averaging the TOPReward over a collection of human-audited high-quality datasets. The filtered data spans both SO-100 and SO-101 embodiments, multiple camera configurations, varied object manipulation tasks, and diverse real-world collection environments. Compared with centrally collected robot datasets, this community-sourced corpus provides broader coverage of user setups, backgrounds, objects, and task annotations, making it a useful source of embodiment and environment diversity for improving real-world robustness. 6Intel RealSense D435    

> Intel Realsense D405
> Amazon Extendable Camera Desk Mount
> IKEA table
> YAM Arms Figure 3 MolmoAct2-BimanualYAM Dataset collection setup. Our standardized MolmoAct2-BimanualYAM Dataset collection setup. Every component is readily available for purchase, and the total cost of the entire setup is under $6,000 USD.

# 3.3 MolmoAct2-DROID Dataset dataset 

DROID (Distributed Robot Interaction Dataset) (Khazatsky et al., 2024) is a large-scale in-the-wild robot manipulation dataset, collected across a wide range of real-world deployment scenarios with a unified Franka robot setup. To ensure the quality of our training data, we leverage the supplementary annotations released in the accompanying HuggingFace repository (Pertsch et al., 2024) to filter the original DROID release. Specifically, we use (i) the extended language annotations, which provide three natural-language instructions for 95% of the 75k successful episodes, and (ii) the provided idle-frame filter, which retains only contiguous non-idle action segments of at least one second. The resulting subset, which we refer to as MolmoAct2-DROID Dataset , contains 74,604 valid episodes comprising a total of 17,758,044 frames. Each episode in this subset is marked as successful, contains at least one valid language instruction, and is free of significant pauses. Furthermore, we did language re-annotation for the entire filter DROID dataset before using for training. 

# 3.4 Academic robotics datasets 

Beyond our main deployment datasets, we include additional public academic robotics data to broaden the range of embodiments, camera layouts, task families, and control conventions seen during pre-training. This pool consists of a targeted subset of the Open X-Embodiment (OXE) mixture (O’Neill et al., 2024), including BC-Z (Jang et al., 2022), BridgeData V2 (Walke et al., 2023), and RT-1 (Brohan et al., 2022), together with MolmoAct Dataset from MolmoAct (Lee et al., 2025). These datasets are used as complementary sources rather than as the primary deployment embodiments, since YAM, SO-100/101, and DROID supply the majority of robot training examples. 

# 3.5 Multimodal dataset 

Past research on robotics foundation models has found benefits in incorporating multimodal data into the training mix along with robotics datasets (Lee et al., 2025; Intelligence et al., 2025). We co-train the VLA with a multimodal data mixture where 46% consists of the Molmo2-ER dataset mixture described in 2.1, 46% consists of the Molmo2 dataset mixture (Clark et al., 2026), and 8% consists of the text SFT data from Tulu (Lambert et al., 2025). The high level composition of this data can be seen in Table 1. 7The Image QA bucket consists of multiple choice and short answer questions on images. The Video QA bucket also consists of multiple choice and short answer questions, but on video datasets. The Image Pointing bucket consists of points on images that correspond to the description in the text. The Video Pointing bucket consists of point and description pairs but for a subset of a video’s frames. The Video Tracking bucket consists of tracks, such as point, segmentation, and bounding boxes around the described object in the video clip. The Captions/LongQA bucket consists of various long form question answer pairs for images and videos. 

# 3.6 Language annotation pipeline 

Following standard practice in imitation learning, each demonstration in our datasets is paired with a language instruction that describes the task completed by the teleoperator. However, we find that these annotations often are imperfect along two key axes. First, datasets where a specific set of tasks is collected repeatedly at scale often have repetitive language instructions. For example, the dataset collected in (Jang et al., 2022) contains 104 unique instructions for 39350 episodes, representing 0.26% unique instructions in the dataset. Secondly, as found in prior work (Shukor et al., 2025), crowd-sourced datasets like the Open SO-100/101 Robot Dataset discussed in Section 3.2 often have inaccurate or meaningless task annotations, like "lerobot_test" and "Test run". To improve both the diversity and accuracy of the language instructions in our robotics datasets, we use an open-source VLM (Qwen3.5-27B) to re-annotate the datasets. We prompt the VLM with a sample of the frames and the original instruction. The VLM is asked to generate a instruction that describes the demonstration. To increase the diversity of prompts, we randomly sample a number and ask the VLM to make this instruction roughly that many words. Relabeling the robotics datasets through this pipeline doubles the unique labels in the overall from 71121 (22%) to 146485 (46%) in dataset. More details and the prompt can be found in Appendix. 

# 4 MolmoAct2 

MolmoAct2 follows a three-stage training pipeline, with the post-training architecture summarized in Fig. 4. Pre-training (Sec. 4.1) adapts the Molmo2-ER vision-language backbone into a discrete autoregressive robot policy, using the OpenFAST Tokenizer (Sec. 4.1.1) to map continuous trajectories into a compact action vocabulary under a unified next-token recipe (Sec. 4.1.2). Post-training (Sec. 4.2) attaches a flow-matching action expert with a per-layer key-value connection to the autoregressive backbone (Sec. 4.2.1), and co-trains discrete and continuous action supervision (Sec. 4.2.2) to produce continuous control. Deployment (Sec. 4.3) then covers embodiment-specific fine-tuning (Sec. 4.3.1) and inference optimization (Sec. 4.3.2). 

# 4.1 Pre-training 

MolmoAct2-Pretrain adapts the Molmo2-ER vision-language backbone into a discrete autoregressive robot policy while keeping the Molmo2 token interface intact. Images and video frames are still encoded by a ViT, pooled and projected by the vision-language connector, and passed to the LLM together with text. Robot examples extend this sequence with two additional token streams: state tokens that describe the current robot configuration, and action tokens that describe the future one-second motion. This section focuses on the two ingredients needed to make that formulation practical. First, we describe 

OpenFAST Tokenizer , which converts continuous, embodiment-specific robot trajectories into compact discrete action tokens. Second, we describe the pre-training recipe that lets these robot sequences be mixed with standard multimodal data: single-crop visual inputs, a small number of sampled video frames, setup/control and action-output markers, state tokenization, and packed training sequences. Together, these choices preserve a single next-token prediction objective across text, vision-language, state, and action targets, without introducing a separate continuous action head at this stage. 

4.1.1 OpenFAST tokenizer 
